** ** SECTION DATA
** **
*SOLID SECTION, ELSET=P1;pid1, MATERIAL=Default MATERIAL
*SOLID SECTION, ELSET=P2;pid2, MATERIAL=Default MATERIAL
*SOLID SECTION, ELSET=P3;pid3, MATERIAL=Default MATERIAL
*SOLID SECTION, ELSET=P4;pid4, MATERIAL=Default MATERIAL
**
*NODE
       1,                       1.,                      -1.,                     -10.
       2,                       1.,                      -2.,                     -10.
       3,                       1.,                      -2.,                      -9.
       4,                       1.,                      -1.,       -8.999999999999998
       5,                       1.,                      -2.,                      -8.
       6,                       1.,                      -1.,                      -8.
       7,                       1.,                      -2.,                       2.
       8,                       1.,                      -1.,                       2.
       9,                       1.,                      -2.,                       0.
      10,                       1.,                      -1.,                       0.
      11,                       1.,                      -2.,       -7.000000000000002
      12,                       1.,                      -1.,                      -7.
      13,                       1.,                      -2.,                      -6.
      14,                       1.,                      -1.,                      -6.
      15,                       1.,                      -2.,       -5.000000000000002
      16,                       1.,                      -1.,       -4.999999999999999
      17,                       1.,                      -2.,       -4.000000000000002
      18,                       1.,                      -1.,                      -4.
      19,                       1.,                      -2.,      -3.0000000000000027
      20,                       1.,                      -1.,      -2.9999999999999982
** ... 236 like lines cut
**
** SOLID ELEMENTS
**
*ELEMENT, TYPE=C3D4, ELSET=P1;pid1
       1,      112,       64,       63,      113
       2,      112,      152,       64,      113
       3,      112,       63,      151,      113
       4,      112,      151,      152,      113
       5,      151,      145,      152,      113
       6,       64,       58,       63,      113
       7,       57,      151,       63,      113
       8,       57,      145,      151,      113
       9,       57,       63,       58,      113
      10,      152,      146,       64,      113
      11,      145,      146,      152,      113
      12,       64,      146,       58,      113
      13,       57,      146,      145,      113
      14,       57,       58,      146,      113
      15,      142,      143,       54,      114
      16,       55,       54,      143,      114
      17,       53,       54,       55,      114
      18,      142,       54,      141,      114
      19,       53,      141,       54,      114
      20,       53,       55,       56,      114
** ... 124 like lines cut
*ELEMENT, TYPE=C3D4, ELSET=P2;pid2
     145,       27,       12,       11,       28
     146,       27,       50,       12,       28
     147,       27,       11,       49,       28
     148,       27,       49,       50,       28
     149,       49,       43,       50,       28
     150,       12,        6,       11,       28
     151,        5,       49,       11,       28
     152,        5,       43,       49,       28
     153,        5,       11,        6,       28
     154,       50,       44,       12,       28
     155,       43,       44,       50,       28
     156,       12,       44,        6,       28
     157,        5,       44,       43,       28
     158,        5,        6,       44,       28
     159,       40,       41,        2,       29
     160,        3,        2,       41,       29
     161,        1,        2,        3,       29
     162,       40,        2,       39,       29
     163,        1,       39,        2,       29
     164,        1,        3,        4,       29
** ... 124 like lines cut
*ELEMENT, TYPE=C3D4, ELSET=P3;pid3
     289,      173,      254,      253,      174
     290,      173,      172,      254,      174
     291,      173,      253,      197,      174
     292,      173,      197,      172,      174
     293,      197,      196,      172,      174
     294,      254,      234,      253,      174
     295,      233,      197,      253,      174
     296,      233,      196,      197,      174
     297,      233,      253,      234,      174
     298,      172,      169,      254,      174
     299,      196,      169,      172,      174
     300,      254,      169,      234,      174
     301,      233,      169,      196,      174
     302,      233,      234,      169,      174
     303,      192,      195,      256,      175
     304,      231,      256,      195,      175
     305,      255,      256,      231,      175
     306,      192,      256,      167,      175
     307,      255,      167,      256,      175
     308,      255,      231,      232,      175
** ... 124 like lines cut
*ELEMENT, TYPE=C3D4, ELSET=P4;pid4
     433,      100,      210,      212,      208
     434,      100,      210,      132,      131
     435,      131,       92,       93,      100
     436,      132,      131,       93,      100
     437,      100,      210,      208,      132
     438,      208,      132,       93,      100
     439,      100,       93,      208,      207
     440,      100,      208,      212,      207
     441,      100,       92,       93,      207
     442,      100,      212,       92,      207
     443,       94,      140,      127,      108
     444,      229,       94,      127,      108
     445,      127,      227,      229,      108
     446,       94,      129,      140,      108
     447,      228,      140,      129,      108
     448,      229,      129,       94,      108
     449,      129,      230,      228,      108
     450,      229,      230,      129,      108
     451,      227,      228,      230,      108
     452,      229,      227,      230,      108
** ... 124 like lines cut
** **
** ** 
** **
** **
** ** 
** **
** **
** **
** ** MATERIALS
** **
** **
** **Default MATERIAL
** **
*MATERIAL, NAME=Default MATERIAL
*DENSITY
                 7.85E-6,
*ELASTIC, TYPE=ISOTROPIC
                    210.,                      0.3
**
** 
**
